!!>>>>>>>>>>>>>>>>>>>>>>>>>>>>>>>>>>>>>>>>>>>>>>>>>>>>>>>>>>>>>>>>>>>>>>
!! NEMO/OCE Configuration namelist : overwrite default values defined in SHARED/namelist_ref
!!>>>>>>>>>>>>>>>>>>>>>>>>>>>>>>>>>>>>>>>>>>>>>>>>>>>>>>>>>>>>>>>>>>>>>>
!!                   eNEATL36 configuration                           !!
!!======================================================================
!!              ***  Domain & Run management namelists  ***           !!
!!                                                                    !!
!!   namrun       parameters of the run
!!   namdom       space and time domain
!!   namcfg       parameters of the configuration                       (default: user defined GYRE)
!!   namwad       Wetting and drying                                    (default: OFF)
!!   namtsd       data: temperature & salinity                          (default: OFF)
!!   namcrs       coarsened grid (for outputs and/or TOP)               (ln_crs =T)
!!   namc1d       1D configuration options                              (ln_c1d =T)
!!   namc1d_dyndmp 1D newtonian damping applied on currents             (ln_c1d =T)
!!   namc1d_uvd   1D data (currents)                                    (ln_c1d =T)
!!======================================================================
!
!-----------------------------------------------------------------------
&namrun        !   parameters of the run
!-----------------------------------------------------------------------
   nn_no       =       0   !  Assimilation cycle index
   cn_exp      = "AGRIF" !  experience name
   nn_it000    =    NIT00   !  first time step
   nn_itend    =    NITEND   !  last  time step
   nn_date0    =    DSTART  !  date at nit_0000 (format yyyymmdd) used if ln_rstart=F or (ln_rstart=T and nn_rstctl=0 or 1)
   nn_time0    =       0   !  initial time of day in hhmm
   nn_leapy    =       1   !  Leap year calendar (1) or not (0)
   ln_rstart   = .FALSE.    !  start from rest (F) or from a restart file (T)
      ln_1st_euler = .FALSE.  !  =T force a start with forward time step (ln_rstart=T)
      nn_rstctl    =    0     !  restart control ==> activated only if ln_rstart=T
      !                          !    = 0 nn_date0 read in namelist ; nn_it000 : read in namelist
      !                          !    = 1 nn_date0 read in namelist ; nn_it000 : check consistancy between namelist and restart
      !                          !    = 2 nn_date0 read in restart  ; nn_it000 : check consistancy between namelist and restart
      cn_ocerst_in    = "RSTIN" !  suffix of ocean restart name (input)
      cn_ocerst_indir = "."         !  directory from which to read input ocean restarts
      cn_ocerst_out   = "restart_oce" !  suffix of ocean restart name (output)
      cn_ocerst_outdir = "."        !  directory in which to write output ocean restarts
   nn_istate   =       0   !  output the initial state (1) or not (0)
   ln_rst_list = .false.   !  output restarts at list of times using nn_stocklist (T) or at set frequency with nn_stock (F)
   nn_stock    =    0   !  used only if ln_rst_list = F: output restart freqeuncy (modulo referenced to 1)
      !                          !    =  0 force to write restart files only at the end of the run
      !                          !    = -1 do not do any restart
   nn_stocklist = 0,0,0,0,0,0,0,0,0,0 ! List of timesteps when a restart file is to be written
   nn_write    =       0   !  used only if key_iomput is not defined: output frequency (modulo referenced to nn_it000)
      !                          !    =  0 force to write output files only at the end of the run
      !                          !    = -1 do not do any output file
   ln_mskland  = .true.    !  mask land points in NetCDF outputs
   ln_cfmeta   = .false.   !  output additional data to netCDF files required for compliance with the CF metadata standard
   ln_clobber  = .true.    !  clobber (overwrite) an existing file
   nn_chunksz  =       0   !  chunksize (bytes) for NetCDF file (works only with iom_nf90 routines)
   ln_xios_read = .FALSE.  !  use XIOS to read restart file (only for a single file restart)
   nn_wxios = 1      !  use XIOS to write restart file 0 - no, 1 - single file output, 2 - multiple file output
/
!-----------------------------------------------------------------------
&namdom        !   time and space domain
!-----------------------------------------------------------------------
   ln_linssh   = .false.   !  =T  linear free surface  ==>>  model level are fixed in time
   !
   rn_Dt       =  50.     !  time step for the dynamics and tracer
   rn_atfp     =    0.1   !  asselin time filter parameter
   !
   ln_crs      = .false.   !  Logical switch for coarsening module      (T => fill namcrs)
   !
   ln_meshmask = .false.   !  =T create a mesh file
/
!-----------------------------------------------------------------------
&namcfg        !   parameters of the configuration                      (default: use namusr_def in namelist_cfg)
!-----------------------------------------------------------------------
   ln_read_cfg = .true.    !  (=T) read the domain configuration file
      !                    !  (=F) user defined configuration           (F => create/check namusr_def)
      cn_domcfg = "domain_cfg"  ! domain configuration filename
      !
      ln_closea    = .false. !  (=T => fill namclo) 
      !                      !  (=F) no control of net precip/evap over closed sea
      !
   ln_write_cfg = .false.    !  (=T) create the domain configuration file
      cn_domcfg_out = "domain_cfg_out" ! newly created domain configuration filename
      !
   ln_use_jattr = .false.    !  use (T) the file attribute: open_ocean_jstart, if present
   !                         !  in netcdf input files, as the start j-row for reading
/
!-----------------------------------------------------------------------
&namtile        !   parameters of the tiling
!-----------------------------------------------------------------------
/
!-----------------------------------------------------------------------
&namclo        !   parameters of the closed sea (cs) behavior                (default: OFF)
!-----------------------------------------------------------------------
/
!-----------------------------------------------------------------------
&namtsd        !    Temperature & Salinity Data  (init/dmp)             (default: OFF)
!-----------------------------------------------------------------------
   !                       ! =T  read T-S fields for:
   ln_tsd_init = .true.         !  ocean initialisation
   ln_tsd_dmp  = .false.         !  T-S restoring   (see namtra_dmp)

   cn_dir      = './'      !  root directory for the T-S data location
   !___________!_________________________!___________________!___________!_____________!________!___________!__________________!__________!_______________!
   !           !  file name              ! frequency (hours) ! variable  ! time interp.!  clim  ! 'yearly'/ ! weights filename ! rotation ! land/sea mask !
   !           !                         !  (if <0  months)  !   name    !   (logical) !  (T/F) ! 'monthly' !                  ! pairing  !    filename   !
   sn_tem = 'restart_oce' , -12. , 'tn' , .false. , .true. , 'yearly' , '' , '' , ''
   sn_sal = 'restart_oce' , -12. , 'sn' , .false. , .true. , 'yearly' , '' , '' , ''
/
!-----------------------------------------------------------------------
&namwad        !   Wetting and Drying (WaD)                             (default: OFF)
!-----------------------------------------------------------------------
/
!-----------------------------------------------------------------------
&namcrs        !   coarsened grid (for outputs and/or TOP)              (ln_crs =T)
!-----------------------------------------------------------------------
/
!-----------------------------------------------------------------------
&namc1d        !   1D configuration options                             ("key_c1d" default: PAPA station)
!-----------------------------------------------------------------------
/
!-----------------------------------------------------------------------
&namc1d_dyndmp !   U & V newtonian damping                              ("key_c1d" default: OFF)
!-----------------------------------------------------------------------
/
!-----------------------------------------------------------------------
&namc1d_uvd    !   data: U & V currents                                 ("key_c1d" default: OFF)
!-----------------------------------------------------------------------
/

!!======================================================================
!!            ***  Surface Boundary Condition namelists  ***          !!
!!                                                                    !!
!!   namsbc          surface boundary condition manager                 (default: NO selection)
!!   namsbc_flx      flux               formulation                     (ln_flx     =T)
!!   namsbc_blk      Bulk formulae formulation                          (ln_blk     =T)
!!   namsbc_cpl      CouPLed            formulation                     ("key_oasis3" )
!!   namsbc_sas      Stand-Alone Surface module                         (SAS_SRC  only)
!!   namsbc_iif      Ice-IF: use observed ice cover                     (nn_ice = 1   )
!!   namtra_qsr      penetrative solar radiation                        (ln_traqsr  =T)
!!   namsbc_ssr      sea surface restoring term (for T and/or S)        (ln_ssr     =T)
!!   namsbc_rnf      river runoffs                                      (ln_rnf     =T)
!!   namsbc_apr      Atmospheric Pressure                               (ln_apr_dyn =T)
!!   namsbc_wave     external fields from wave model                    (ln_wave    =T)
!!   namberg         iceberg floats                                     (ln_icebergs=T)
!!   namsbc_fwb      freshwater-budget adjustment                       (nn_fwb > 0)
!!======================================================================
!
!-----------------------------------------------------------------------
&namsbc        !   Surface Boundary Condition manager                   (default: NO selection)
!-----------------------------------------------------------------------
   nn_fsbc     = 1         !  frequency of SBC module call
      !                    !  (control sea-ice & iceberg model call)
                     ! Type of air-sea fluxes
   ln_usr      = .false.   !  user defined formulation                  (T => check usrdef_sbc)
   ln_flx      = .false.   !  flux formulation                          (T => fill namsbc_flx )
   ln_blk      = .true.    !  Bulk formulation                          (T => fill namsbc_blk )
   ln_abl      = .false.   !  ABL  formulation                          (T => fill namsbc_abl )
      !              ! Type of coupling (Ocean/Ice/Atmosphere) :
   ln_cpl      = .false.   !  atmosphere coupled   formulation          ( requires key_oasis3 )
   ln_mixcpl   = .false.   !  forced-coupled mixed formulation          ( requires key_oasis3 )
   nn_components = 0       !  configuration of the opa-sas OASIS coupling
      !                    !  =0 no opa-sas OASIS coupling: default single executable config.
      !                    !  =1 opa-sas OASIS coupling: multi executable config., OPA component
      !                    !  =2 opa-sas OASIS coupling: multi executable config., SAS component
                     ! Sea-ice :
   nn_ice      = 0         !  =0 no ice boundary condition
      !                    !  =1 use observed ice-cover                 (  => fill namsbc_iif )
      !                    !  =2 or 3 for SI3 and CICE, respectively
   ln_ice_embd = .false.   !  =T embedded sea-ice (pressure + mass and salt exchanges)
      !                    !  =F levitating ice (no pressure, mass and salt exchanges)
                     ! Misc. options of sbc :
   ln_traqsr   = .true.    !  Light penetration in the ocean            (T => fill namtra_qsr)
   ln_dm2dc    = .false.   !  daily mean to diurnal cycle on short wave
   ln_ssr      = .false.   !  Sea Surface Restoring on T and/or S       (T => fill namsbc_ssr)
   nn_fwb      = 0         !  FreshWater Budget: =0 unchecked
      !                    !     =1 global mean of e-p-r set to zero at each time step
      !                    !     =2 annual global mean of e-p-r set to zero
                           !     =3 annual global mean of year before reported
                           !     =4 annual global mean of e-p-r at sinusoidal function
   ln_rnf      = .true.    !  runoffs                                   (T => fill namsbc_rnf)
   ln_apr_dyn  = .true.    !  Patm gradient added in ocean & ice Eqs.   (T => fill namsbc_apr )
   ln_wave     = .false.   !  Activate coupling with wave  (T => fill namsbc_wave)
   nn_lsm      = 0         !  =0 land/sea mask for input fields is not applied (keep empty land/sea mask filename field) ,
                           !  =1:n number of iterations of land/sea mask application for input fields (fill land/sea mask filename field)
/
!-----------------------------------------------------------------------
&namsbc_flx    !   surface boundary condition : flux formulation        (ln_flx =T)
!-----------------------------------------------------------------------
/
!-----------------------------------------------------------------------
&namsbc_blk    !   namsbc_blk  generic Bulk formula          (ln_blk =T)
!-----------------------------------------------------------------------
   !                    !  bulk algorithm :
   ln_NCAR      = .false.    ! "NCAR"      algorithm   (Large and Yeager 2008)
   ln_COARE_3p0 = .false.    ! "COARE 3.0" algorithm   (Fairall et al. 2003)
   ln_COARE_3p6 = .false.    ! "COARE 3.6" algorithm   (Edson et al. 2013)
   ln_ECMWF     = .true.     ! "ECMWF"     algorithm   (IFS cycle 45r1)
   ln_ANDREAS   = .false.    ! "ANDREAS"   algorithm   (Andreas et al. 2015)
      rn_zqt       =  2.     !  Air temperature & humidity reference height (m)
      rn_zu        = 10.     !  Wind vector reference height (m)
      nn_iter_algo = 12       !  Number of iterations in bulk param. algo ("stable ABL + weak wind" requires more)
      ln_skin_cs   = .true. !  use the cool-skin parameterization  => use at least nn_iter_algo > 10
      ln_skin_wl   = .false. !  use the warm-layer parameterization => use at least nn_iter_algo > 10
   !
   rn_pfac    = 1.          !  multipl. factor for precipitation (total & snow)
   rn_efac    = 1.          !  multipl. factor for evaporation (0. or 1.)
   !
   ln_crt_fbk = .true.      !  Add surface current feedback to the wind stress (Renault et al. 2020, doi: 10.1029/2019MS001715)
         rn_stau_a = -2.9e-3   !     Alpha from eq. 10: Stau = Alpha * Wnd + Beta
         rn_stau_b =  8.0e-3   !     Beta 
   !
   ln_humi_sph = .true.  !  humidity "sn_humi" is specific humidity  [kg/kg]
   ln_humi_dpt = .false. !  humidity "sn_humi" is dew-point temperature [K]
   ln_humi_rlh = .false. !  humidity "sn_humi" is relative humidity     [%]
   ln_tair_pot = .false. !  air temperature read in "sn_tair" is already POTENTIAL TEMPERATURE, NOT ABSOLUTE (ECMWF => ln_tair_pot=.false.)
   !!   
   !! Bulk transfer coefficients over sea-ice: (relevant IF: nn_ice >=1 )
   ln_Cx_ice_cst = .true.     ! use constant ice-air bulk transfer coefficients (value given below)
      rn_Cd_i  = 1.4e-3       ! sea-ice drag coefficient
      rn_Ce_i  = 1.4e-3       !    "    sublimation coefficient
      rn_Ch_i  = 1.4e-3       !    "    sensible heat flux coefficient
   ln_Cx_ice_AN05  = .false.  !  (Andreas et al. 2005)
   ln_Cx_ice_LU12  = .false.  !  (Lupkes et al. 2012)
   ln_Cx_ice_LG15  = .false.  !  (Lupkes & Gryanik 2015)
   !
   cn_dir      = 'ecmwf_forcing/'      !  root directory for the bulk data location
   !___________!_________________________!___________________!___________!_____________!________!___________!______________________________________!__________!_______________!
   !           !  file name              ! frequency (hours) ! variable  ! time interp.!  clim  ! 'yearly'/ !       weights filename               ! rotation ! land/sea mask !
   !           !                         !  (if <0  months)  !   name    !   (logical) !  (T/F) ! 'monthly' !                                      ! pairing  !    filename   !
   sn_wndi     = 'ECMWF_BULKU10M_GAUSS1280'    ,      1.     , 'sowinu10', .true.   , .FALSE. , 'daily' , 'weights_IFS_2_eNEATL36_AGRIF_LARGE_bicub' , 'U10'   , ''
   sn_wndj     = 'ECMWF_BULKV10M_GAUSS1280'    ,      1.     , 'sowinv10', .true.   , .FALSE. , 'daily' , 'weights_IFS_2_eNEATL36_AGRIF_LARGE_bicub' , 'V10'   , ''
   sn_qsr      = 'ECMWF_FLUXSSRD_GAUSS1280'    ,      1.     , 'sosudosw', .true.  , .FALSE. , 'daily' , 'weights_IFS_2_eNEATL36_AGRIF_LARGE_bilin' ,  ''  , ''
   sn_qlw      = 'ECMWF_FLUXSTRD_GAUSS1280'    ,      1.     , 'sosudolw', .true.  , .FALSE. , 'daily' , 'weights_IFS_2_eNEATL36_AGRIF_LARGE_bilin' ,  ''  , ''
   sn_tair     = 'ECMWF_BULKTAIR_GAUSS1280'    ,      1.     , 'sotemair', .true.   , .FALSE. , 'daily' , 'weights_IFS_2_eNEATL36_AGRIF_LARGE_bilin' ,  ''  , ''
   sn_humi     = 'ECMWF_BULKHUMI_GAUSS1280'    ,      1.     , 'sohumspe', .true.   , .FALSE. , 'daily' , 'weights_IFS_2_eNEATL36_AGRIF_LARGE_bilin' ,  ''  , ''
   sn_prec     = 'ECMWF_FLCOPRE_GAUSS1280'     ,      1      , 'sowaprec', .true.  , .FALSE. , 'daily' , 'weights_IFS_2_eNEATL36_AGRIF_LARGE_bilin' ,  ''  , ''
   sn_snow     = 'ECMWF_SNOWFALL_GAUSS1280'    ,      1.     , 'sosnowfa', .FALSE.  , .FALSE. , 'daily' , 'weights_IFS_2_eNEATL36_AGRIF_LARGE_bilin' , '', ''
   sn_slp      = 'ECMWF_PRES_GAUSS1280'        ,      1.     , 'somslpre', .true.   , .FALSE. , 'daily' , 'weights_IFS_2_eNEATL36_AGRIF_LARGE_bilin' ,  ''  , ''
   sn_cc       = 'NOT USED'              , 24.               , 'CC'      ,   .false.   , .true. , 'yearly'  , 'weights_core_orca2_bilinear_noc.nc' , ''       , ''
   sn_hpgi     = 'NOT USED'              , 24.               , 'uhpg'    ,   .false.   , .false., 'monthly' , ''                                   , 'UG'     , ''
   sn_hpgj     = 'NOT USED'              , 24.               , 'vhpg'    ,   .false.   , .false., 'monthly' , ''                                   , 'VG'     , ''
/
!-----------------------------------------------------------------------
&namsbc_abl    !   Atmospheric Boundary Layer formulation           (ln_abl = T)
!-----------------------------------------------------------------------
/
!-----------------------------------------------------------------------
&namsbc_cpl    !   coupled ocean/atmosphere model                       ("key_oasis3")
!-----------------------------------------------------------------------
/
!-----------------------------------------------------------------------
&namsbc_sas    !   Stand-Alone Surface module: ocean data               (SAS_SRC  only)
!-----------------------------------------------------------------------
/
!-----------------------------------------------------------------------
&namsbc_iif    !   Ice-IF : use observed ice cover                      (nn_ice = 1)
!-----------------------------------------------------------------------
/
!-----------------------------------------------------------------------
&namtra_qsr    !   penetrative solar radiation                          (ln_traqsr =T)
!-----------------------------------------------------------------------
   !                       !  type of penetration                        (default: NO selection)
   ln_qsr_rgb  = .true.       !  RGB light penetration (Red-Green-Blue)
   ln_qsr_2bd  = .false.      !  2BD light penetration (two bands)
   ln_qsr_bio  = .false.      !  bio-model light penetration
   !                       !  RGB & 2BD choices:
   rn_abs      =   0.58       !  RGB & 2BD: fraction absorbed in the very near surface
   rn_si0      =   0.35       !  RGB & 2BD: shortess depth of extinction
   nn_chldta   =      0       !  RGB : Chl data (=1) or cst value (=0)
   rn_si1      =   23.0       !  2BD : longest depth of extinction

   cn_dir      = './'      !  root directory for the chlorophyl data location
   !___________!_________________________!___________________!___________!_____________!________!___________!__________________!__________!_______________!
   !           !  file name              ! frequency (hours) ! variable  ! time interp.!  clim  ! 'yearly'/ ! weights filename ! rotation ! land/sea mask !
   !           !                         !  (if <0  months)  !   name    !   (logical) !  (T/F) ! 'monthly' !                  ! pairing  !    filename   !
   sn_chl      ='CHL_eNEATL36'           ,        -1.        , 'CHL'    ,   .true.    , .true. , 'yearly'  , ''               , ''       , ''
/
!-----------------------------------------------------------------------
&namsbc_ssr    !   surface boundary condition : sea surface restoring   (ln_ssr =T)
!-----------------------------------------------------------------------
/
!-----------------------------------------------------------------------
&namsbc_rnf    !   runoffs                                              (ln_rnf =T)
!-----------------------------------------------------------------------
   ln_rnf_mouth = .FALSE.   !  specific treatment at rivers mouths
      rn_hrnf     =  15.e0     !  depth over which enhanced vertical mixing is used    (ln_rnf_mouth=T)
      rn_avt_rnf  =   1.e-3    !  value of the additional vertical mixing coef. [m2/s] (ln_rnf_mouth=T)
   rn_rfact     =   1.e0    !  multiplicative factor for runoff
   ln_rnf_depth = .false.   !  read in depth information for runoff
   ln_rnf_tem   = .false.   !  read in temperature information for runoff
   ln_rnf_sal   = .false.   !  read in salinity information for runoff
   ln_rnf_icb   = .false.   !  read iceberg flux
   ln_rnf_depth_ini = .false.  ! compute depth at initialisation from runoff file
      rn_rnf_max  = 5.735e-4   !  max value of the runoff climatologie over global domain ( ln_rnf_depth_ini = .true )
      rn_dep_max  = 150.       !  depth over which runoffs is spread ( ln_rnf_depth_ini = .true )
      nn_rnf_depth_file = 0    !  create (=1) a runoff depth file or not (=0)

   cn_dir       = './'      !  root directory for the runoff data location
   !___________!_________________________!___________________!___________!_____________!________!___________!__________________!__________!_______________!
   !           !  file name              ! frequency (hours) ! variable  ! time interp.!  clim  ! 'yearly'/ ! weights filename ! rotation ! land/sea mask !
   !           !                         !  (if <0  months)  !   name    !   (logical) !  (T/F) ! 'monthly' !                  ! pairing  !    filename   !
   sn_rnf      = 'runoff_2D_AGRIF'    ,          24       , 'runoffs_instant', .true.   , .false. , 'yearly'  , ''       , ''       , ''
   sn_cnf      = 'runoff_2D_AGRIF'    ,          24       , 'socoefr0',    .FALSE.  , .false. , 'yearly'  , ''               , ''       , ''
   sn_s_rnf    = 'runoffs'               ,        24.        , 'rosaline',    .true.   , .true. , 'yearly'  , ''               , ''       , ''
   sn_t_rnf    = 'runoffs'               ,        24.        , 'rotemper',    .true.   , .true. , 'yearly'  , ''               , ''       , ''
   sn_dep_rnf  = 'runoffs'               ,         0.        , 'rodepth' ,    .FALSE.  , .true. , 'yearly'  , ''               , ''       , ''
/
!-----------------------------------------------------------------------
&namsbc_apr    !   Atmospheric pressure used as ocean forcing           (ln_apr_dyn =T)
!-----------------------------------------------------------------------
   rn_pref     = 100970.   !  reference atmospheric pressure   [N/m2]/
   ln_ref_apr  = .false.   !  ref. pressure: global mean Patm (T) or a constant (F)
   ln_apr_obc  = .true.    !  inverse barometer added to OBC ssh data

   cn_dir      = 'ecmwf_forcing/'      !  root directory for the Patm data location
   !___________!_________________________!___________________!___________!_____________!________!___________!__________________!__________!_______________!
   !           !  file name              ! frequency (hours) ! variable  ! time interp.!  clim  ! 'yearly'/ ! weights filename ! rotation ! land/sea mask !
   !           !                         !  (if <0  months)  !   name    !   (logical) !  (T/F) ! 'monthly' !                  ! pairing  !    filename   !
   sn_apr      = 'ECMWF_PRES_GAUSS1280'            ,      1.    , 'somslpre', .true.   , .FALSE. , 'daily' , 'weights_IFS_2_eNEATL36_AGRIF_LARGE_bilin' ,  ''  , ''
/
!-----------------------------------------------------------------------
&namisf       !  Top boundary layer (ISF)                               (default: OFF)
!-----------------------------------------------------------------------
/
!-----------------------------------------------------------------------
&namsbc_wave   ! External fields from wave model                        (ln_wave=T)
!-----------------------------------------------------------------------
/
!-----------------------------------------------------------------------
&namberg       !   iceberg parameters                                   (default: OFF)
!-----------------------------------------------------------------------
/

!!======================================================================
!!               ***  Lateral boundary condition  ***                 !!
!!                                                                    !!
!!   namlbc        lateral momentum boundary condition                  (default: NO selection)
!!   namagrif      agrif nested grid   (read by child model only)       ("key_agrif")
!!   nam_tide      Tidal forcing                                        (default: OFF)
!!   nambdy        Unstructured open boundaries                         (default: OFF)
!!   nambdy_dta    Unstructured open boundaries - external data         (see  nambdy)
!!   nambdy_tide   tidal forcing at open boundaries                     (default: OFF)
!!======================================================================
!
!-----------------------------------------------------------------------
&namlbc        !   lateral momentum boundary condition                  (default: NO selection)
!-----------------------------------------------------------------------
   !                       !  free slip  !   partial slip  !   no slip   ! strong slip
   rn_shlat    =    2    !  shlat = 0  !  0 < shlat < 2  !  shlat = 2  !  2 < shlat
   ln_vorlat   = .false.   !  consistency of vorticity boundary condition with analytical Eqs.
/
!-----------------------------------------------------------------------
&namagrif      !  AGRIF zoom                                            ("key_agrif")
!-----------------------------------------------------------------------
   ln_agrif_2way   = .true.  !  activate two way nesting
   ln_init_chfrpar = .false. !  initialize child grids from parent
   ln_vert_remap   = .false. !  use vertical remapping
   ln_chk_bathy    = .true.  !  =T  check the parent bathymetry
   rn_sponge_tra   = 0.002   !  coefficient for tracer   sponge layer []
   rn_sponge_dyn   = 0.002   !  coefficient for dynamics sponge layer []
   rn_trelax_tra   = 0.01    !  inverse of relaxation time (in steps) for tracers []
   rn_trelax_dyn   = 0.01    !  inverse of relaxation time (in steps) for dynamics []

/
!-----------------------------------------------------------------------
&nam_tide      !   tide parameters                                      (default: OFF)
!-----------------------------------------------------------------------
   ln_tide     = .true.      ! Activate tides
      ln_tide_pot   = .true.                !  use tidal potential forcing
         ln_scal_load  = .FALSE.               ! Use scalar approximation for
            rn_scal_load = 0.094               !     load potential
         ln_read_load  = .FALSE.               ! Or read load potential from file
            cn_tide_load = 'tide_LOAD_grid_T'  ! filename for load potential
            !
      ln_tide_ramp  = .RAMP_TF.               !  Use linear ramp for tides at startup
         rn_tide_ramp_dt   =    2                 !  ramp duration in days
   sn_tide_cnames(1)     =   'M2'   !  name of constituent
   sn_tide_cnames(2)     =   'S2'
   sn_tide_cnames(3)     =   'N2'
   sn_tide_cnames(4)     =   'K1'
   sn_tide_cnames(5)     =   'O1'
   sn_tide_cnames(6)     =   'Q1'
   sn_tide_cnames(7)     =   'M4'
   sn_tide_cnames(8)     =   'K2'
   sn_tide_cnames(9)     =   'P1'
   sn_tide_cnames(10)    =   'Mf'
   sn_tide_cnames(11)    =   'Mm'
/
!-----------------------------------------------------------------------
&nambdy        !  unstructured open boundaries                          (default: OFF)
!-----------------------------------------------------------------------
   ln_bdy         = .false.   !  Use unstructured open boundaries
/
!!======================================================================
!!                ***  Top/Bottom boundary condition  ***             !!
!!                                                                    !!
!!   namdrg        top/bottom drag coefficient                          (default: NO selection)
!!   namdrg_top    top    friction                                      (ln_drg_OFF=F & ln_isfcav=T)
!!   namdrg_bot    bottom friction                                      (ln_drg_OFF=F)
!!   nambbc        bottom temperature boundary condition                (default: OFF)
!!   nambbl        bottom boundary layer scheme                         (default: OFF)
!!======================================================================
!
!-----------------------------------------------------------------------